<?xml version="1.0" encoding="UTF-8"?>

<!-- generated on 2026-03-30 23:32:59 by Eclipse SUMO duarouter Version 1.12.0
<configuration xmlns:xsi="http://www.w3.org/2001/XMLSchema-instance" xsi:noNamespaceSchemaLocation="http://sumo.dlr.de/xsd/duarouterConfiguration.xsd">

    <input>
        <net-file value="reseau_12_carrefours.net.xml"/>
        <route-files value="trips.trips.xml"/>
    </input>

    <output>
        <output-file value="trafic.rou.xml"/>
        <alternatives-output value="trafic.rou.alt.xml"/>
    </output>

    <processing>
        <remove-loops value="true"/>
    </processing>

    <time>
        <begin value="0"/>
        <end value="3600"/>
    </time>

    <report>
        <no-warnings value="true"/>
        <ignore-errors value="true"/>
        <no-step-log value="true"/>
    </report>

</configuration>
-->

<routes xmlns:xsi="http://www.w3.org/2001/XMLSchema-instance" xsi:noNamespaceSchemaLocation="http://sumo.dlr.de/xsd/routes_file.xsd">
    <vehicle id="0" depart="0.00">
        <route edges="C1C0 C0B0 B0A0 A0A1"/>
    </vehicle>
    <vehicle id="1" depart="18.00">
        <route edges="C0B0 B0A0"/>
    </vehicle>
    <vehicle id="2" depart="36.00">
        <route edges="C2C1 C1D1"/>
    </vehicle>
    <vehicle id="3" depart="54.00">
        <route edges="D1D0 D0C0 C0B0 B0A0 A0A1"/>
    </vehicle>
    <vehicle id="4" depart="72.00">
        <route edges="B2A2 A2A1 A1A0 A0B0"/>
    </vehicle>
    <vehicle id="5" depart="90.00">
        <route edges="A0A1 A1A2 A2B2"/>
    </vehicle>
    <vehicle id="6" depart="108.00">
        <route edges="B0A0 A0A1 A1B1 B1C1"/>
    </vehicle>
    <vehicle id="7" depart="126.00">
        <route edges="D0C0 C0B0 B0A0 A0A1"/>
    </vehicle>
    <vehicle id="8" depart="144.00">
        <route edges="D0C0 C0C1 C1D1"/>
    </vehicle>
    <vehicle id="9" depart="162.00">
        <route edges="B0B1 B1B2 B2A2 A2A1"/>
    </vehicle>
    <vehicle id="10" depart="180.00">
        <route edges="D2C2 C2B2 B2B1 B1B0"/>
    </vehicle>
    <vehicle id="11" depart="198.00">
        <route edges="A1A2"/>
    </vehicle>
    <vehicle id="12" depart="216.00">
        <route edges="D0D1 D1C1 C1B1"/>
    </vehicle>
    <vehicle id="13" depart="234.00">
        <route edges="D0C0 C0C1 C1C2 C2B2"/>
    </vehicle>
    <vehicle id="14" depart="252.00">
        <route edges="C0C1 C1C2 C2D2 D2D1"/>
    </vehicle>
    <vehicle id="15" depart="270.00">
        <route edges="B1B2 B2C2 C2C1 C1C0"/>
    </vehicle>
    <vehicle id="16" depart="288.00">
        <route edges="D0D1 D1C1 C1C0"/>
    </vehicle>
    <vehicle id="17" depart="306.00">
        <route edges="D1C1 C1C0 C0D0"/>
    </vehicle>
    <vehicle id="18" depart="324.00">
        <route edges="D1C1 C1B1 B1A1 A1A0 A0B0"/>
    </vehicle>
    <vehicle id="19" depart="342.00">
        <route edges="B1B0 B0C0"/>
    </vehicle>
    <vehicle id="20" depart="360.00">
        <route edges="A1A0 A0B0"/>
    </vehicle>
    <vehicle id="21" depart="378.00">
        <route edges="A1A2 A2B2 B2B1 B1B0 B0C0"/>
    </vehicle>
    <vehicle id="22" depart="396.00">
        <route edges="C1C0 C0B0 B0B1 B1B2"/>
    </vehicle>
    <vehicle id="23" depart="414.00">
        <route edges="B2B1 B1B0 B0A0"/>
    </vehicle>
    <vehicle id="24" depart="432.00">
        <route edges="B0C0 C0D0 D0D1 D1D2"/>
    </vehicle>
    <vehicle id="25" depart="450.00">
        <route edges="C2C1 C1B1"/>
    </vehicle>
    <vehicle id="26" depart="468.00">
        <route edges="A1A2 A2B2 B2C2"/>
    </vehicle>
    <vehicle id="27" depart="486.00">
        <route edges="A2A1 A1B1 B1B2"/>
    </vehicle>
    <vehicle id="28" depart="504.00">
        <route edges="D2D1 D1C1 C1C0"/>
    </vehicle>
    <vehicle id="29" depart="522.00">
        <route edges="C0C1 C1D1"/>
    </vehicle>
    <vehicle id="30" depart="540.00">
        <route edges="D0D1 D1C1 C1C2 C2D2"/>
    </vehicle>
    <vehicle id="31" depart="558.00">
        <route edges="B1A1 A1A0 A0B0 B0C0"/>
    </vehicle>
    <vehicle id="32" depart="576.00">
        <route edges="B0A0 A0A1 A1B1 B1C1 C1D1 D1D2 D2C2"/>
    </vehicle>
    <vehicle id="33" depart="594.00">
        <route edges="D1C1 C1B1 B1A1"/>
    </vehicle>
    <vehicle id="34" depart="612.00">
        <route edges="D1D2 D2C2 C2B2 B2B1"/>
    </vehicle>
    <vehicle id="35" depart="630.00">
        <route edges="C0B0 B0B1"/>
    </vehicle>
    <vehicle id="36" depart="648.00">
        <route edges="D0C0 C0B0 B0B1"/>
    </vehicle>
    <vehicle id="37" depart="666.00">
        <route edges="C0D0 D0D1"/>
    </vehicle>
    <vehicle id="38" depart="684.00">
        <route edges="B1C1 C1C0 C0B0 B0A0"/>
    </vehicle>
    <vehicle id="39" depart="702.00">
        <route edges="D2D1 D1D0 D0C0 C0B0"/>
    </vehicle>
    <vehicle id="40" depart="720.00">
        <route edges="B1A1 A1A0 A0B0"/>
    </vehicle>
    <vehicle id="41" depart="738.00">
        <route edges="A1A2 A2B2 B2C2 C2C1 C1C0"/>
    </vehicle>
    <vehicle id="42" depart="756.00">
        <route edges="C1C2 C2B2 B2A2"/>
    </vehicle>
    <vehicle id="43" depart="774.00">
        <route edges="A1A0 A0B0 B0B1 B1B2"/>
    </vehicle>
    <vehicle id="44" depart="792.00">
        <route edges="D2D1 D1D0 D0C0 C0B0"/>
    </vehicle>
    <vehicle id="45" depart="810.00">
        <route edges="D2D1 D1C1"/>
    </vehicle>
    <vehicle id="46" depart="828.00">
        <route edges="A0A1 A1A2 A2B2 B2C2"/>
    </vehicle>
    <vehicle id="47" depart="846.00">
        <route edges="B0C0 C0C1"/>
    </vehicle>
    <vehicle id="48" depart="864.00">
        <route edges="A1A2 A2B2"/>
    </vehicle>
    <vehicle id="49" depart="882.00">
        <route edges="B2B1 B1C1 C1D1 D1D2 D2C2"/>
    </vehicle>
    <vehicle id="50" depart="900.00">
        <route edges="D1C1 C1C0 C0B0 B0B1"/>
    </vehicle>
    <vehicle id="51" depart="918.00">
        <route edges="C0B0 B0A0 A0A1 A1A2 A2B2"/>
    </vehicle>
    <vehicle id="52" depart="936.00">
        <route edges="D2D1 D1C1"/>
    </vehicle>
    <vehicle id="53" depart="954.00">
        <route edges="A1B1 B1C1 C1C0"/>
    </vehicle>
    <vehicle id="54" depart="972.00">
        <route edges="C1B1 B1B2 B2A2 A2A1"/>
    </vehicle>
    <vehicle id="55" depart="990.00">
        <route edges="C2C1 C1C0"/>
    </vehicle>
    <vehicle id="56" depart="1008.00">
        <route edges="C2D2 D2D1 D1D0 D0C0 C0C1"/>
    </vehicle>
    <vehicle id="57" depart="1026.00">
        <route edges="A0A1 A1B1 B1B0"/>
    </vehicle>
    <vehicle id="58" depart="1044.00">
        <route edges="A0A1 A1B1 B1C1 C1D1 D1D2"/>
    </vehicle>
    <vehicle id="59" depart="1062.00">
        <route edges="B1A1 A1A0 A0B0"/>
    </vehicle>
    <vehicle id="60" depart="1080.00">
        <route edges="C1D1 D1D2 D2C2"/>
    </vehicle>
    <vehicle id="61" depart="1098.00">
        <route edges="A1A0 A0B0 B0B1 B1B2 B2C2"/>
    </vehicle>
    <vehicle id="62" depart="1116.00">
        <route edges="A1A0 A0B0 B0B1 B1B2 B2C2 C2C1"/>
    </vehicle>
    <vehicle id="63" depart="1134.00">
        <route edges="C2D2 D2D1 D1C1 C1B1 B1A1"/>
    </vehicle>
    <vehicle id="64" depart="1152.00">
        <route edges="B2C2 C2C1 C1C0"/>
    </vehicle>
    <vehicle id="65" depart="1170.00">
        <route edges="B0C0 C0D0 D0D1 D1C1"/>
    </vehicle>
    <vehicle id="66" depart="1188.00">
        <route edges="B2A2 A2A1 A1B1 B1B0 B0A0"/>
    </vehicle>
    <vehicle id="67" depart="1206.00">
        <route edges="C0C1 C1C2 C2B2"/>
    </vehicle>
    <vehicle id="68" depart="1224.00">
        <route edges="A2B2 B2B1 B1A1"/>
    </vehicle>
    <vehicle id="69" depart="1242.00">
        <route edges="D2D1 D1C1 C1C2"/>
    </vehicle>
    <vehicle id="70" depart="1260.00">
        <route edges="B2A2 A2A1 A1B1 B1C1 C1C0 C0B0"/>
    </vehicle>
    <vehicle id="71" depart="1278.00">
        <route edges="A1B1 B1B0 B0A0"/>
    </vehicle>
    <vehicle id="72" depart="1296.00">
        <route edges="B0A0"/>
    </vehicle>
    <vehicle id="73" depart="1314.00">
        <route edges="A1A0 A0B0 B0B1 B1C1 C1C0"/>
    </vehicle>
    <vehicle id="74" depart="1332.00">
        <route edges="B0A0 A0A1 A1B1 B1C1 C1D1 D1D0"/>
    </vehicle>
    <vehicle id="75" depart="1350.00">
        <route edges="D1C1 C1B1 B1A1 A1A0"/>
    </vehicle>
    <vehicle id="76" depart="1368.00">
        <route edges="B0B1 B1C1 C1C2"/>
    </vehicle>
    <vehicle id="77" depart="1386.00">
        <route edges="B0A0 A0A1 A1B1"/>
    </vehicle>
    <vehicle id="78" depart="1404.00">
        <route edges="D1D2 D2C2 C2C1 C1C0 C0D0"/>
    </vehicle>
    <vehicle id="79" depart="1422.00">
        <route edges="B2C2 C2D2"/>
    </vehicle>
    <vehicle id="80" depart="1440.00">
        <route edges="D0C0 C0B0 B0A0 A0A1 A1A2 A2B2"/>
    </vehicle>
    <vehicle id="81" depart="1458.00">
        <route edges="A1A2 A2B2"/>
    </vehicle>
    <vehicle id="82" depart="1476.00">
        <route edges="A2B2 B2B1"/>
    </vehicle>
    <vehicle id="83" depart="1494.00">
        <route edges="D2D1 D1C1 C1B1 B1A1 A1A2"/>
    </vehicle>
    <vehicle id="84" depart="1512.00">
        <route edges="C1B1 B1B0"/>
    </vehicle>
    <vehicle id="85" depart="1530.00">
        <route edges="D1C1 C1C0 C0B0 B0B1"/>
    </vehicle>
    <vehicle id="86" depart="1548.00">
        <route edges="A2B2 B2B1"/>
    </vehicle>
    <vehicle id="87" depart="1566.00">
        <route edges="B2A2 A2A1 A1A0 A0B0 B0C0"/>
    </vehicle>
    <vehicle id="88" depart="1584.00">
        <route edges="B0B1 B1C1 C1D1 D1D2"/>
    </vehicle>
    <vehicle id="89" depart="1602.00">
        <route edges="B2B1 B1C1 C1D1"/>
    </vehicle>
    <vehicle id="90" depart="1620.00">
        <route edges="C0C1 C1B1 B1A1 A1A0 A0B0"/>
    </vehicle>
    <vehicle id="91" depart="1638.00">
        <route edges="D2D1 D1D0"/>
    </vehicle>
    <vehicle id="92" depart="1656.00">
        <route edges="D0D1 D1D2 D2C2 C2B2 B2A2 A2A1"/>
    </vehicle>
    <vehicle id="93" depart="1674.00">
        <route edges="B2C2 C2C1 C1C0 C0B0 B0A0"/>
    </vehicle>
    <vehicle id="94" depart="1692.00">
        <route edges="C1B1 B1A1 A1A0 A0B0"/>
    </vehicle>
    <vehicle id="95" depart="1710.00">
        <route edges="B1B2 B2C2 C2D2 D2D1"/>
    </vehicle>
    <vehicle id="96" depart="1728.00">
        <route edges="B0C0 C0C1 C1C2 C2D2"/>
    </vehicle>
    <vehicle id="97" depart="1746.00">
        <route edges="B1B2 B2A2"/>
    </vehicle>
    <vehicle id="98" depart="1764.00">
        <route edges="C2D2 D2D1"/>
    </vehicle>
    <vehicle id="99" depart="1782.00">
        <route edges="C0C1 C1C2 C2B2"/>
    </vehicle>
    <vehicle id="100" depart="1800.00">
        <route edges="A2A1 A1B1"/>
    </vehicle>
    <vehicle id="101" depart="1818.00">
        <route edges="D2C2 C2C1 C1C0 C0D0"/>
    </vehicle>
    <vehicle id="102" depart="1836.00">
        <route edges="C0C1 C1C2"/>
    </vehicle>
    <vehicle id="103" depart="1854.00">
        <route edges="A0B0 B0C0 C0D0"/>
    </vehicle>
    <vehicle id="104" depart="1872.00">
        <route edges="B0C0 C0D0 D0D1"/>
    </vehicle>
    <vehicle id="105" depart="1890.00">
        <route edges="A2A1 A1B1 B1C1 C1D1 D1D2 D2C2"/>
    </vehicle>
    <vehicle id="106" depart="1908.00">
        <route edges="A0A1 A1A2 A2B2"/>
    </vehicle>
    <vehicle id="107" depart="1926.00">
        <route edges="B1C1 C1C2"/>
    </vehicle>
    <vehicle id="108" depart="1944.00">
        <route edges="B0A0 A0A1 A1B1"/>
    </vehicle>
    <vehicle id="109" depart="1962.00">
        <route edges="D1D0 D0C0 C0B0 B0B1"/>
    </vehicle>
    <vehicle id="110" depart="1980.00">
        <route edges="B1C1 C1C0"/>
    </vehicle>
    <vehicle id="111" depart="1998.00">
        <route edges="B2A2 A2A1 A1A0 A0B0 B0C0 C0D0"/>
    </vehicle>
    <vehicle id="112" depart="2016.00">
        <route edges="C0B0 B0B1 B1C1 C1D1 D1D2"/>
    </vehicle>
    <vehicle id="113" depart="2034.00">
        <route edges="A2B2 B2C2"/>
    </vehicle>
    <vehicle id="114" depart="2052.00">
        <route edges="B0B1 B1C1"/>
    </vehicle>
    <vehicle id="115" depart="2070.00">
        <route edges="C2C1 C1B1 B1A1"/>
    </vehicle>
    <vehicle id="116" depart="2088.00">
        <route edges="B1A1 A1A2 A2B2 B2C2 C2C1"/>
    </vehicle>
    <vehicle id="117" depart="2106.00">
        <route edges="A1A0 A0B0 B0B1 B1B2"/>
    </vehicle>
    <vehicle id="118" depart="2124.00">
        <route edges="D2D1"/>
    </vehicle>
    <vehicle id="119" depart="2142.00">
        <route edges="A1A0 A0B0"/>
    </vehicle>
    <vehicle id="120" depart="2160.00">
        <route edges="B0C0 C0D0 D0D1 D1D2"/>
    </vehicle>
    <vehicle id="121" depart="2178.00">
        <route edges="D1C1"/>
    </vehicle>
    <vehicle id="122" depart="2196.00">
        <route edges="B1B2 B2A2 A2A1"/>
    </vehicle>
    <vehicle id="123" depart="2214.00">
        <route edges="D0D1 D1C1"/>
    </vehicle>
    <vehicle id="124" depart="2232.00">
        <route edges="C1B1 B1B2 B2C2 C2D2 D2D1"/>
    </vehicle>
    <vehicle id="125" depart="2250.00">
        <route edges="C2C1 C1C0 C0B0 B0A0 A0A1"/>
    </vehicle>
    <vehicle id="126" depart="2268.00">
        <route edges="D0C0 C0B0 B0B1 B1A1"/>
    </vehicle>
    <vehicle id="127" depart="2286.00">
        <route edges="C1C2 C2D2 D2D1"/>
    </vehicle>
    <vehicle id="128" depart="2304.00">
        <route edges="B1A1 A1A2"/>
    </vehicle>
    <vehicle id="129" depart="2322.00">
        <route edges="A1A2 A2B2 B2C2 C2C1 C1C0"/>
    </vehicle>
    <vehicle id="130" depart="2340.00">
        <route edges="B0C0 C0C1 C1B1"/>
    </vehicle>
    <vehicle id="131" depart="2358.00">
        <route edges="C2B2 B2B1"/>
    </vehicle>
    <vehicle id="132" depart="2376.00">
        <route edges="C1C0 C0B0 B0B1"/>
    </vehicle>
    <vehicle id="133" depart="2394.00">
        <route edges="B2C2 C2D2 D2D1 D1D0"/>
    </vehicle>
    <vehicle id="134" depart="2412.00">
        <route edges="D0D1 D1C1 C1B1 B1A1 A1A2"/>
    </vehicle>
    <vehicle id="135" depart="2430.00">
        <route edges="B2A2 A2A1 A1A0 A0B0 B0C0"/>
    </vehicle>
    <vehicle id="136" depart="2448.00">
        <route edges="A0A1 A1A2 A2B2 B2C2 C2D2"/>
    </vehicle>
    <vehicle id="137" depart="2466.00">
        <route edges="C1C0 C0B0 B0B1"/>
    </vehicle>
    <vehicle id="138" depart="2484.00">
        <route edges="C2C1 C1C0"/>
    </vehicle>
    <vehicle id="139" depart="2502.00">
        <route edges="B2A2 A2A1 A1B1"/>
    </vehicle>
    <vehicle id="140" depart="2520.00">
        <route edges="A1A0 A0B0 B0B1 B1C1 C1D1 D1D0"/>
    </vehicle>
    <vehicle id="141" depart="2538.00">
        <route edges="D1D0 D0C0 C0C1"/>
    </vehicle>
    <vehicle id="142" depart="2556.00">
        <route edges="A2A1 A1B1"/>
    </vehicle>
    <vehicle id="143" depart="2574.00">
        <route edges="A1B1 B1C1 C1D1 D1D0"/>
    </vehicle>
    <vehicle id="144" depart="2592.00">
        <route edges="D0C0 C0C1 C1D1"/>
    </vehicle>
    <vehicle id="145" depart="2610.00">
        <route edges="D1D0 D0C0 C0B0 B0A0"/>
    </vehicle>
    <vehicle id="146" depart="2628.00">
        <route edges="B0B1 B1A1 A1A2"/>
    </vehicle>
    <vehicle id="147" depart="2646.00">
        <route edges="C2D2 D2D1 D1D0"/>
    </vehicle>
    <vehicle id="148" depart="2664.00">
        <route edges="B1C1 C1C0"/>
    </vehicle>
    <vehicle id="149" depart="2682.00">
        <route edges="A2A1 A1B1 B1C1 C1D1 D1D2"/>
    </vehicle>
    <vehicle id="150" depart="2700.00">
        <route edges="D0C0 C0C1 C1D1"/>
    </vehicle>
    <vehicle id="151" depart="2718.00">
        <route edges="A0A1 A1A2 A2B2 B2C2 C2C1"/>
    </vehicle>
    <vehicle id="152" depart="2736.00">
        <route edges="B1B0 B0C0 C0D0 D0D1 D1D2"/>
    </vehicle>
    <vehicle id="153" depart="2754.00">
        <route edges="D0C0 C0C1 C1D1"/>
    </vehicle>
    <vehicle id="154" depart="2772.00">
        <route edges="D0C0 C0B0"/>
    </vehicle>
    <vehicle id="155" depart="2790.00">
        <route edges="C2D2 D2D1 D1C1 C1B1 B1A1 A1A2"/>
    </vehicle>
    <vehicle id="156" depart="2808.00">
        <route edges="D1C1"/>
    </vehicle>
    <vehicle id="157" depart="2826.00">
        <route edges="B0A0 A0A1 A1B1 B1C1 C1D1 D1D0 D0C0"/>
    </vehicle>
    <vehicle id="158" depart="2844.00">
        <route edges="B2B1 B1A1"/>
    </vehicle>
    <vehicle id="159" depart="2862.00">
        <route edges="D0C0 C0B0 B0A0"/>
    </vehicle>
    <vehicle id="160" depart="2880.00">
        <route edges="A0A1 A1A2 A2B2"/>
    </vehicle>
    <vehicle id="161" depart="2898.00">
        <route edges="B0B1 B1C1 C1D1"/>
    </vehicle>
    <vehicle id="162" depart="2916.00">
        <route edges="D2C2 C2B2 B2B1 B1B0 B0C0"/>
    </vehicle>
    <vehicle id="163" depart="2934.00">
        <route edges="D2D1 D1D0 D0C0 C0C1"/>
    </vehicle>
    <vehicle id="164" depart="2952.00">
        <route edges="D1D2 D2C2 C2C1 C1B1 B1A1 A1A2"/>
    </vehicle>
    <vehicle id="165" depart="2970.00">
        <route edges="D2C2 C2B2 B2B1"/>
    </vehicle>
    <vehicle id="166" depart="2988.00">
        <route edges="D2C2 C2B2 B2B1 B1B0 B0C0"/>
    </vehicle>
    <vehicle id="167" depart="3006.00">
        <route edges="A1A2 A2B2"/>
    </vehicle>
    <vehicle id="168" depart="3024.00">
        <route edges="C2B2 B2B1 B1A1"/>
    </vehicle>
    <vehicle id="169" depart="3042.00">
        <route edges="B1C1 C1C0 C0B0"/>
    </vehicle>
    <vehicle id="170" depart="3060.00">
        <route edges="B1C1 C1C0 C0D0"/>
    </vehicle>
    <vehicle id="171" depart="3078.00">
        <route edges="B0B1 B1B2 B2C2"/>
    </vehicle>
    <vehicle id="172" depart="3096.00">
        <route edges="A0A1 A1B1 B1C1 C1D1 D1D2"/>
    </vehicle>
    <vehicle id="173" depart="3114.00">
        <route edges="C0C1 C1C2 C2B2"/>
    </vehicle>
    <vehicle id="174" depart="3132.00">
        <route edges="B1B2 B2A2 A2A1 A1A0"/>
    </vehicle>
    <vehicle id="175" depart="3150.00">
        <route edges="C1C2 C2B2 B2B1 B1B0"/>
    </vehicle>
    <vehicle id="176" depart="3168.00">
        <route edges="B1A1 A1A0 A0B0 B0C0 C0D0 D0D1"/>
    </vehicle>
    <vehicle id="177" depart="3186.00">
        <route edges="C2B2 B2B1 B1A1"/>
    </vehicle>
    <vehicle id="178" depart="3204.00">
        <route edges="A1B1 B1C1"/>
    </vehicle>
    <vehicle id="179" depart="3222.00">
        <route edges="C1B1 B1A1"/>
    </vehicle>
    <vehicle id="180" depart="3240.00">
        <route edges="A1B1 B1B2 B2A2"/>
    </vehicle>
    <vehicle id="181" depart="3258.00">
        <route edges="D1D0 D0C0 C0C1 C1B1"/>
    </vehicle>
    <vehicle id="182" depart="3276.00">
        <route edges="A1B1 B1C1 C1C0"/>
    </vehicle>
    <vehicle id="183" depart="3294.00">
        <route edges="A0A1 A1B1 B1B0 B0C0"/>
    </vehicle>
    <vehicle id="184" depart="3312.00">
        <route edges="B2A2 A2A1 A1A0 A0B0 B0C0 C0D0"/>
    </vehicle>
    <vehicle id="185" depart="3330.00">
        <route edges="C1C2 C2B2 B2B1"/>
    </vehicle>
    <vehicle id="186" depart="3348.00">
        <route edges="B2B1 B1B0 B0A0"/>
    </vehicle>
    <vehicle id="187" depart="3366.00">
        <route edges="B2C2 C2D2 D2D1 D1D0"/>
    </vehicle>
    <vehicle id="188" depart="3384.00">
        <route edges="D0C0 C0C1 C1C2 C2B2 B2A2 A2A1"/>
    </vehicle>
    <vehicle id="189" depart="3402.00">
        <route edges="A1A0 A0B0 B0C0"/>
    </vehicle>
    <vehicle id="190" depart="3420.00">
        <route edges="C1C0 C0B0 B0B1"/>
    </vehicle>
    <vehicle id="191" depart="3438.00">
        <route edges="D0C0 C0C1 C1C2"/>
    </vehicle>
    <vehicle id="192" depart="3456.00">
        <route edges="C2C1 C1C0 C0B0 B0A0"/>
    </vehicle>
    <vehicle id="193" depart="3474.00">
        <route edges="A2B2 B2B1 B1B0 B0A0 A0A1"/>
    </vehicle>
    <vehicle id="194" depart="3492.00">
        <route edges="B0B1 B1B2 B2C2"/>
    </vehicle>
    <vehicle id="195" depart="3510.00">
        <route edges="D0D1 D1C1 C1B1 B1A1 A1A0"/>
    </vehicle>
    <vehicle id="196" depart="3528.00">
        <route edges="B2A2 A2A1 A1B1 B1C1 C1C0"/>
    </vehicle>
    <vehicle id="197" depart="3546.00">
        <route edges="A2B2 B2C2 C2C1 C1D1"/>
    </vehicle>
    <vehicle id="198" depart="3564.00">
        <route edges="B2C2 C2C1 C1C0 C0B0 B0B1"/>
    </vehicle>
    <vehicle id="199" depart="3582.00">
        <route edges="C2C1 C1C0 C0B0 B0A0 A0A1"/>
    </vehicle>
</routes>
