<?xml version="1.0" encoding="UTF-8"?>

<!-- generated on 2026-03-30 23:32:59 by Eclipse SUMO duarouter Version 1.12.0
<configuration xmlns:xsi="http://www.w3.org/2001/XMLSchema-instance" xsi:noNamespaceSchemaLocation="http://sumo.dlr.de/xsd/duarouterConfiguration.xsd">

    <input>
        <net-file value="reseau_12_carrefours.net.xml"/>
        <route-files value="trips.trips.xml"/>
    </input>

    <output>
        <output-file value="trips.trips.xml.tmp"/>
        <write-trips value="true"/>
    </output>

    <processing>
        <remove-loops value="true"/>
    </processing>

    <time>
        <begin value="0"/>
        <end value="3600"/>
    </time>

    <report>
        <no-warnings value="true"/>
        <ignore-errors value="true"/>
        <no-step-log value="true"/>
    </report>

</configuration>
-->

<routes xmlns:xsi="http://www.w3.org/2001/XMLSchema-instance" xsi:noNamespaceSchemaLocation="http://sumo.dlr.de/xsd/routes_file.xsd">
    <trip id="0" depart="0.00" from="C1C0" to="A0A1"/>
    <trip id="1" depart="18.00" from="C0B0" to="B0A0"/>
    <trip id="2" depart="36.00" from="C2C1" to="C1D1"/>
    <trip id="3" depart="54.00" from="D1D0" to="A0A1"/>
    <trip id="4" depart="72.00" from="B2A2" to="A0B0"/>
    <trip id="5" depart="90.00" from="A0A1" to="A2B2"/>
    <trip id="6" depart="108.00" from="B0A0" to="B1C1"/>
    <trip id="7" depart="126.00" from="D0C0" to="A0A1"/>
    <trip id="8" depart="144.00" from="D0C0" to="C1D1"/>
    <trip id="9" depart="162.00" from="B0B1" to="A2A1"/>
    <trip id="10" depart="180.00" from="D2C2" to="B1B0"/>
    <trip id="11" depart="198.00" from="A1A2" to="A1A2"/>
    <trip id="12" depart="216.00" from="D0D1" to="C1B1"/>
    <trip id="13" depart="234.00" from="D0C0" to="C2B2"/>
    <trip id="14" depart="252.00" from="C0C1" to="D2D1"/>
    <trip id="15" depart="270.00" from="B1B2" to="C1C0"/>
    <trip id="16" depart="288.00" from="D0D1" to="C1C0"/>
    <trip id="17" depart="306.00" from="D1C1" to="C0D0"/>
    <trip id="18" depart="324.00" from="D1C1" to="A0B0"/>
    <trip id="19" depart="342.00" from="B1B0" to="B0C0"/>
    <trip id="20" depart="360.00" from="A1A0" to="A0B0"/>
    <trip id="21" depart="378.00" from="A1A2" to="B0C0"/>
    <trip id="22" depart="396.00" from="C1C0" to="B1B2"/>
    <trip id="23" depart="414.00" from="B2B1" to="B0A0"/>
    <trip id="24" depart="432.00" from="B0C0" to="D1D2"/>
    <trip id="25" depart="450.00" from="C2C1" to="C1B1"/>
    <trip id="26" depart="468.00" from="A1A2" to="B2C2"/>
    <trip id="27" depart="486.00" from="A2A1" to="B1B2"/>
    <trip id="28" depart="504.00" from="D2D1" to="C1C0"/>
    <trip id="29" depart="522.00" from="C0C1" to="C1D1"/>
    <trip id="30" depart="540.00" from="D0D1" to="C2D2"/>
    <trip id="31" depart="558.00" from="B1A1" to="B0C0"/>
    <trip id="32" depart="576.00" from="B0A0" to="D2C2"/>
    <trip id="33" depart="594.00" from="D1C1" to="B1A1"/>
    <trip id="34" depart="612.00" from="D1D2" to="B2B1"/>
    <trip id="35" depart="630.00" from="C0B0" to="B0B1"/>
    <trip id="36" depart="648.00" from="D0C0" to="B0B1"/>
    <trip id="37" depart="666.00" from="C0D0" to="D0D1"/>
    <trip id="38" depart="684.00" from="B1C1" to="B0A0"/>
    <trip id="39" depart="702.00" from="D2D1" to="C0B0"/>
    <trip id="40" depart="720.00" from="B1A1" to="A0B0"/>
    <trip id="41" depart="738.00" from="A1A2" to="C1C0"/>
    <trip id="42" depart="756.00" from="C1C2" to="B2A2"/>
    <trip id="43" depart="774.00" from="A1A0" to="B1B2"/>
    <trip id="44" depart="792.00" from="D2D1" to="C0B0"/>
    <trip id="45" depart="810.00" from="D2D1" to="D1C1"/>
    <trip id="46" depart="828.00" from="A0A1" to="B2C2"/>
    <trip id="47" depart="846.00" from="B0C0" to="C0C1"/>
    <trip id="48" depart="864.00" from="A1A2" to="A2B2"/>
    <trip id="49" depart="882.00" from="B2B1" to="D2C2"/>
    <trip id="50" depart="900.00" from="D1C1" to="B0B1"/>
    <trip id="51" depart="918.00" from="C0B0" to="A2B2"/>
    <trip id="52" depart="936.00" from="D2D1" to="D1C1"/>
    <trip id="53" depart="954.00" from="A1B1" to="C1C0"/>
    <trip id="54" depart="972.00" from="C1B1" to="A2A1"/>
    <trip id="55" depart="990.00" from="C2C1" to="C1C0"/>
    <trip id="56" depart="1008.00" from="C2D2" to="C0C1"/>
    <trip id="57" depart="1026.00" from="A0A1" to="B1B0"/>
    <trip id="58" depart="1044.00" from="A0A1" to="D1D2"/>
    <trip id="59" depart="1062.00" from="B1A1" to="A0B0"/>
    <trip id="60" depart="1080.00" from="C1D1" to="D2C2"/>
    <trip id="61" depart="1098.00" from="A1A0" to="B2C2"/>
    <trip id="62" depart="1116.00" from="A1A0" to="C2C1"/>
    <trip id="63" depart="1134.00" from="C2D2" to="B1A1"/>
    <trip id="64" depart="1152.00" from="B2C2" to="C1C0"/>
    <trip id="65" depart="1170.00" from="B0C0" to="D1C1"/>
    <trip id="66" depart="1188.00" from="B2A2" to="B0A0"/>
    <trip id="67" depart="1206.00" from="C0C1" to="C2B2"/>
    <trip id="68" depart="1224.00" from="A2B2" to="B1A1"/>
    <trip id="69" depart="1242.00" from="D2D1" to="C1C2"/>
    <trip id="70" depart="1260.00" from="B2A2" to="C0B0"/>
    <trip id="71" depart="1278.00" from="A1B1" to="B0A0"/>
    <trip id="72" depart="1296.00" from="B0A0" to="B0A0"/>
    <trip id="73" depart="1314.00" from="A1A0" to="C1C0"/>
    <trip id="74" depart="1332.00" from="B0A0" to="D1D0"/>
    <trip id="75" depart="1350.00" from="D1C1" to="A1A0"/>
    <trip id="76" depart="1368.00" from="B0B1" to="C1C2"/>
    <trip id="77" depart="1386.00" from="B0A0" to="A1B1"/>
    <trip id="78" depart="1404.00" from="D1D2" to="C0D0"/>
    <trip id="79" depart="1422.00" from="B2C2" to="C2D2"/>
    <trip id="80" depart="1440.00" from="D0C0" to="A2B2"/>
    <trip id="81" depart="1458.00" from="A1A2" to="A2B2"/>
    <trip id="82" depart="1476.00" from="A2B2" to="B2B1"/>
    <trip id="83" depart="1494.00" from="D2D1" to="A1A2"/>
    <trip id="84" depart="1512.00" from="C1B1" to="B1B0"/>
    <trip id="85" depart="1530.00" from="D1C1" to="B0B1"/>
    <trip id="86" depart="1548.00" from="A2B2" to="B2B1"/>
    <trip id="87" depart="1566.00" from="B2A2" to="B0C0"/>
    <trip id="88" depart="1584.00" from="B0B1" to="D1D2"/>
    <trip id="89" depart="1602.00" from="B2B1" to="C1D1"/>
    <trip id="90" depart="1620.00" from="C0C1" to="A0B0"/>
    <trip id="91" depart="1638.00" from="D2D1" to="D1D0"/>
    <trip id="92" depart="1656.00" from="D0D1" to="A2A1"/>
    <trip id="93" depart="1674.00" from="B2C2" to="B0A0"/>
    <trip id="94" depart="1692.00" from="C1B1" to="A0B0"/>
    <trip id="95" depart="1710.00" from="B1B2" to="D2D1"/>
    <trip id="96" depart="1728.00" from="B0C0" to="C2D2"/>
    <trip id="97" depart="1746.00" from="B1B2" to="B2A2"/>
    <trip id="98" depart="1764.00" from="C2D2" to="D2D1"/>
    <trip id="99" depart="1782.00" from="C0C1" to="C2B2"/>
    <trip id="100" depart="1800.00" from="A2A1" to="A1B1"/>
    <trip id="101" depart="1818.00" from="D2C2" to="C0D0"/>
    <trip id="102" depart="1836.00" from="C0C1" to="C1C2"/>
    <trip id="103" depart="1854.00" from="A0B0" to="C0D0"/>
    <trip id="104" depart="1872.00" from="B0C0" to="D0D1"/>
    <trip id="105" depart="1890.00" from="A2A1" to="D2C2"/>
    <trip id="106" depart="1908.00" from="A0A1" to="A2B2"/>
    <trip id="107" depart="1926.00" from="B1C1" to="C1C2"/>
    <trip id="108" depart="1944.00" from="B0A0" to="A1B1"/>
    <trip id="109" depart="1962.00" from="D1D0" to="B0B1"/>
    <trip id="110" depart="1980.00" from="B1C1" to="C1C0"/>
    <trip id="111" depart="1998.00" from="B2A2" to="C0D0"/>
    <trip id="112" depart="2016.00" from="C0B0" to="D1D2"/>
    <trip id="113" depart="2034.00" from="A2B2" to="B2C2"/>
    <trip id="114" depart="2052.00" from="B0B1" to="B1C1"/>
    <trip id="115" depart="2070.00" from="C2C1" to="B1A1"/>
    <trip id="116" depart="2088.00" from="B1A1" to="C2C1"/>
    <trip id="117" depart="2106.00" from="A1A0" to="B1B2"/>
    <trip id="118" depart="2124.00" from="D2D1" to="D2D1"/>
    <trip id="119" depart="2142.00" from="A1A0" to="A0B0"/>
    <trip id="120" depart="2160.00" from="B0C0" to="D1D2"/>
    <trip id="121" depart="2178.00" from="D1C1" to="D1C1"/>
    <trip id="122" depart="2196.00" from="B1B2" to="A2A1"/>
    <trip id="123" depart="2214.00" from="D0D1" to="D1C1"/>
    <trip id="124" depart="2232.00" from="C1B1" to="D2D1"/>
    <trip id="125" depart="2250.00" from="C2C1" to="A0A1"/>
    <trip id="126" depart="2268.00" from="D0C0" to="B1A1"/>
    <trip id="127" depart="2286.00" from="C1C2" to="D2D1"/>
    <trip id="128" depart="2304.00" from="B1A1" to="A1A2"/>
    <trip id="129" depart="2322.00" from="A1A2" to="C1C0"/>
    <trip id="130" depart="2340.00" from="B0C0" to="C1B1"/>
    <trip id="131" depart="2358.00" from="C2B2" to="B2B1"/>
    <trip id="132" depart="2376.00" from="C1C0" to="B0B1"/>
    <trip id="133" depart="2394.00" from="B2C2" to="D1D0"/>
    <trip id="134" depart="2412.00" from="D0D1" to="A1A2"/>
    <trip id="135" depart="2430.00" from="B2A2" to="B0C0"/>
    <trip id="136" depart="2448.00" from="A0A1" to="C2D2"/>
    <trip id="137" depart="2466.00" from="C1C0" to="B0B1"/>
    <trip id="138" depart="2484.00" from="C2C1" to="C1C0"/>
    <trip id="139" depart="2502.00" from="B2A2" to="A1B1"/>
    <trip id="140" depart="2520.00" from="A1A0" to="D1D0"/>
    <trip id="141" depart="2538.00" from="D1D0" to="C0C1"/>
    <trip id="142" depart="2556.00" from="A2A1" to="A1B1"/>
    <trip id="143" depart="2574.00" from="A1B1" to="D1D0"/>
    <trip id="144" depart="2592.00" from="D0C0" to="C1D1"/>
    <trip id="145" depart="2610.00" from="D1D0" to="B0A0"/>
    <trip id="146" depart="2628.00" from="B0B1" to="A1A2"/>
    <trip id="147" depart="2646.00" from="C2D2" to="D1D0"/>
    <trip id="148" depart="2664.00" from="B1C1" to="C1C0"/>
    <trip id="149" depart="2682.00" from="A2A1" to="D1D2"/>
    <trip id="150" depart="2700.00" from="D0C0" to="C1D1"/>
    <trip id="151" depart="2718.00" from="A0A1" to="C2C1"/>
    <trip id="152" depart="2736.00" from="B1B0" to="D1D2"/>
    <trip id="153" depart="2754.00" from="D0C0" to="C1D1"/>
    <trip id="154" depart="2772.00" from="D0C0" to="C0B0"/>
    <trip id="155" depart="2790.00" from="C2D2" to="A1A2"/>
    <trip id="156" depart="2808.00" from="D1C1" to="D1C1"/>
    <trip id="157" depart="2826.00" from="B0A0" to="D0C0"/>
    <trip id="158" depart="2844.00" from="B2B1" to="B1A1"/>
    <trip id="159" depart="2862.00" from="D0C0" to="B0A0"/>
    <trip id="160" depart="2880.00" from="A0A1" to="A2B2"/>
    <trip id="161" depart="2898.00" from="B0B1" to="C1D1"/>
    <trip id="162" depart="2916.00" from="D2C2" to="B0C0"/>
    <trip id="163" depart="2934.00" from="D2D1" to="C0C1"/>
    <trip id="164" depart="2952.00" from="D1D2" to="A1A2"/>
    <trip id="165" depart="2970.00" from="D2C2" to="B2B1"/>
    <trip id="166" depart="2988.00" from="D2C2" to="B0C0"/>
    <trip id="167" depart="3006.00" from="A1A2" to="A2B2"/>
    <trip id="168" depart="3024.00" from="C2B2" to="B1A1"/>
    <trip id="169" depart="3042.00" from="B1C1" to="C0B0"/>
    <trip id="170" depart="3060.00" from="B1C1" to="C0D0"/>
    <trip id="171" depart="3078.00" from="B0B1" to="B2C2"/>
    <trip id="172" depart="3096.00" from="A0A1" to="D1D2"/>
    <trip id="173" depart="3114.00" from="C0C1" to="C2B2"/>
    <trip id="174" depart="3132.00" from="B1B2" to="A1A0"/>
    <trip id="175" depart="3150.00" from="C1C2" to="B1B0"/>
    <trip id="176" depart="3168.00" from="B1A1" to="D0D1"/>
    <trip id="177" depart="3186.00" from="C2B2" to="B1A1"/>
    <trip id="178" depart="3204.00" from="A1B1" to="B1C1"/>
    <trip id="179" depart="3222.00" from="C1B1" to="B1A1"/>
    <trip id="180" depart="3240.00" from="A1B1" to="B2A2"/>
    <trip id="181" depart="3258.00" from="D1D0" to="C1B1"/>
    <trip id="182" depart="3276.00" from="A1B1" to="C1C0"/>
    <trip id="183" depart="3294.00" from="A0A1" to="B0C0"/>
    <trip id="184" depart="3312.00" from="B2A2" to="C0D0"/>
    <trip id="185" depart="3330.00" from="C1C2" to="B2B1"/>
    <trip id="186" depart="3348.00" from="B2B1" to="B0A0"/>
    <trip id="187" depart="3366.00" from="B2C2" to="D1D0"/>
    <trip id="188" depart="3384.00" from="D0C0" to="A2A1"/>
    <trip id="189" depart="3402.00" from="A1A0" to="B0C0"/>
    <trip id="190" depart="3420.00" from="C1C0" to="B0B1"/>
    <trip id="191" depart="3438.00" from="D0C0" to="C1C2"/>
    <trip id="192" depart="3456.00" from="C2C1" to="B0A0"/>
    <trip id="193" depart="3474.00" from="A2B2" to="A0A1"/>
    <trip id="194" depart="3492.00" from="B0B1" to="B2C2"/>
    <trip id="195" depart="3510.00" from="D0D1" to="A1A0"/>
    <trip id="196" depart="3528.00" from="B2A2" to="C1C0"/>
    <trip id="197" depart="3546.00" from="A2B2" to="C1D1"/>
    <trip id="198" depart="3564.00" from="B2C2" to="B0B1"/>
    <trip id="199" depart="3582.00" from="C2C1" to="A0A1"/>
</routes>
